/*--------------------------------*- C++ -*----------------------------------*\
| =========                 |                                                 |
| \\      /  F ield         | OpenFOAM: The Open Source CFD Toolbox           |
|  \\    /   O peration     | Version:  v1906                                 |
|   \\  /    A nd           | Web:      www.OpenFOAM.com                      |
|    \\/     M anipulation  |                                                 |
\*---------------------------------------------------------------------------*/
FoamFile
{
    version     2.0;
    format      ascii;
    class       dictionary;
    location    "system";
    object      setFieldsDict;
}
// * * * * * * * * * * * * * * * * * * * * * * * * * * * * * * * * * * * * * //

defaultFieldValues
(
    volScalarFieldValue alpha.water 0 // Air
);

regions
(
    boxToCell
    {
        box (-20 -20 -1) (20 0 1);
        fieldValues
        (
            volScalarFieldValue alpha.water 1 // Water
        );
    }


//background Mesh
    cellToCell
    {
        set c0;

        fieldValues
        (
            volScalarFieldValue zoneID 0
            
        );
    }
//overset Mesh

    cellToCell
    {
        set c1;

        fieldValues
        (
            volScalarFieldValue zoneID 1
            
        );
    }
);

// ************************************************************************* //
